*SPEF "ieee 1481-1999"
*DESIGN "wrapped_rgb_mixer"
*DATE "11:11:11 Fri 11 11, 1111"
*VENDOR "OpenRCX"
*PROGRAM "Parallel Extraction"
*VERSION "1.0"
*DESIGN_FLOW "NAME_SCOPE LOCAL" "PIN_CAP NONE"
*DIVIDER /
*DELIMITER :
*BUS_DELIMITER []
*T_UNIT 1 NS
*C_UNIT 1 PF
*R_UNIT 1 OHM
*L_UNIT 1 HENRY

*NAME_MAP
*1 active
*2 io_in[0]
*3 io_in[10]
*4 io_in[11]
*5 io_in[12]
*6 io_in[13]
*7 io_in[14]
*8 io_in[15]
*9 io_in[16]
*10 io_in[17]
*11 io_in[18]
*12 io_in[19]
*13 io_in[1]
*14 io_in[20]
*15 io_in[21]
*16 io_in[22]
*17 io_in[23]
*18 io_in[24]
*19 io_in[25]
*20 io_in[26]
*21 io_in[27]
*22 io_in[28]
*23 io_in[29]
*24 io_in[2]
*25 io_in[30]
*26 io_in[31]
*27 io_in[32]
*28 io_in[33]
*29 io_in[34]
*30 io_in[35]
*31 io_in[36]
*32 io_in[37]
*33 io_in[3]
*34 io_in[4]
*35 io_in[5]
*36 io_in[6]
*37 io_in[7]
*38 io_in[8]
*39 io_in[9]
*40 io_oeb[0]
*41 io_oeb[10]
*42 io_oeb[11]
*43 io_oeb[12]
*44 io_oeb[13]
*45 io_oeb[14]
*46 io_oeb[15]
*47 io_oeb[16]
*48 io_oeb[17]
*49 io_oeb[18]
*50 io_oeb[19]
*51 io_oeb[1]
*52 io_oeb[20]
*53 io_oeb[21]
*54 io_oeb[22]
*55 io_oeb[23]
*56 io_oeb[24]
*57 io_oeb[25]
*58 io_oeb[26]
*59 io_oeb[27]
*60 io_oeb[28]
*61 io_oeb[29]
*62 io_oeb[2]
*63 io_oeb[30]
*64 io_oeb[31]
*65 io_oeb[32]
*66 io_oeb[33]
*67 io_oeb[34]
*68 io_oeb[35]
*69 io_oeb[36]
*70 io_oeb[37]
*71 io_oeb[3]
*72 io_oeb[4]
*73 io_oeb[5]
*74 io_oeb[6]
*75 io_oeb[7]
*76 io_oeb[8]
*77 io_oeb[9]
*78 io_out[0]
*79 io_out[10]
*80 io_out[11]
*81 io_out[12]
*82 io_out[13]
*83 io_out[14]
*84 io_out[15]
*85 io_out[16]
*86 io_out[17]
*87 io_out[18]
*88 io_out[19]
*89 io_out[1]
*90 io_out[20]
*91 io_out[21]
*92 io_out[22]
*93 io_out[23]
*94 io_out[24]
*95 io_out[25]
*96 io_out[26]
*97 io_out[27]
*98 io_out[28]
*99 io_out[29]
*100 io_out[2]
*101 io_out[30]
*102 io_out[31]
*103 io_out[32]
*104 io_out[33]
*105 io_out[34]
*106 io_out[35]
*107 io_out[36]
*108 io_out[37]
*109 io_out[3]
*110 io_out[4]
*111 io_out[5]
*112 io_out[6]
*113 io_out[7]
*114 io_out[8]
*115 io_out[9]
*116 la1_data_in[0]
*117 la1_data_in[10]
*118 la1_data_in[11]
*119 la1_data_in[12]
*120 la1_data_in[13]
*121 la1_data_in[14]
*122 la1_data_in[15]
*123 la1_data_in[16]
*124 la1_data_in[17]
*125 la1_data_in[18]
*126 la1_data_in[19]
*127 la1_data_in[1]
*128 la1_data_in[20]
*129 la1_data_in[21]
*130 la1_data_in[22]
*131 la1_data_in[23]
*132 la1_data_in[24]
*133 la1_data_in[25]
*134 la1_data_in[26]
*135 la1_data_in[27]
*136 la1_data_in[28]
*137 la1_data_in[29]
*138 la1_data_in[2]
*139 la1_data_in[30]
*140 la1_data_in[31]
*141 la1_data_in[3]
*142 la1_data_in[4]
*143 la1_data_in[5]
*144 la1_data_in[6]
*145 la1_data_in[7]
*146 la1_data_in[8]
*147 la1_data_in[9]
*148 la1_data_out[0]
*149 la1_data_out[10]
*150 la1_data_out[11]
*151 la1_data_out[12]
*152 la1_data_out[13]
*153 la1_data_out[14]
*154 la1_data_out[15]
*155 la1_data_out[16]
*156 la1_data_out[17]
*157 la1_data_out[18]
*158 la1_data_out[19]
*159 la1_data_out[1]
*160 la1_data_out[20]
*161 la1_data_out[21]
*162 la1_data_out[22]
*163 la1_data_out[23]
*164 la1_data_out[24]
*165 la1_data_out[25]
*166 la1_data_out[26]
*167 la1_data_out[27]
*168 la1_data_out[28]
*169 la1_data_out[29]
*170 la1_data_out[2]
*171 la1_data_out[30]
*172 la1_data_out[31]
*173 la1_data_out[3]
*174 la1_data_out[4]
*175 la1_data_out[5]
*176 la1_data_out[6]
*177 la1_data_out[7]
*178 la1_data_out[8]
*179 la1_data_out[9]
*180 la1_oenb[0]
*181 la1_oenb[10]
*182 la1_oenb[11]
*183 la1_oenb[12]
*184 la1_oenb[13]
*185 la1_oenb[14]
*186 la1_oenb[15]
*187 la1_oenb[16]
*188 la1_oenb[17]
*189 la1_oenb[18]
*190 la1_oenb[19]
*191 la1_oenb[1]
*192 la1_oenb[20]
*193 la1_oenb[21]
*194 la1_oenb[22]
*195 la1_oenb[23]
*196 la1_oenb[24]
*197 la1_oenb[25]
*198 la1_oenb[26]
*199 la1_oenb[27]
*200 la1_oenb[28]
*201 la1_oenb[29]
*202 la1_oenb[2]
*203 la1_oenb[30]
*204 la1_oenb[31]
*205 la1_oenb[3]
*206 la1_oenb[4]
*207 la1_oenb[5]
*208 la1_oenb[6]
*209 la1_oenb[7]
*210 la1_oenb[8]
*211 la1_oenb[9]
*214 wb_clk_i
*215 _0000_
*216 _0001_
*217 _0002_
*218 _0003_
*219 _0004_
*220 _0005_
*221 _0006_
*222 _0007_
*223 _0008_
*224 _0009_
*225 _0010_
*226 _0011_
*227 _0012_
*228 _0013_
*229 _0014_
*230 _0015_
*231 _0016_
*232 _0017_
*233 _0018_
*234 _0019_
*235 _0020_
*236 _0021_
*237 _0022_
*238 _0023_
*239 _0024_
*240 _0025_
*241 _0026_
*242 _0027_
*243 _0028_
*244 _0029_
*245 _0030_
*246 _0031_
*247 _0032_
*248 _0033_
*249 _0034_
*250 _0035_
*251 _0036_
*252 _0037_
*253 _0038_
*254 _0039_
*255 _0040_
*256 _0041_
*257 _0042_
*258 _0043_
*259 _0044_
*260 _0045_
*261 _0046_
*262 _0047_
*263 _0048_
*264 _0049_
*265 _0050_
*266 _0051_
*267 _0052_
*268 _0053_
*269 _0054_
*270 _0055_
*271 _0056_
*272 _0057_
*273 _0058_
*274 _0059_
*275 _0060_
*276 _0061_
*277 _0062_
*278 _0063_
*279 _0064_
*280 _0065_
*281 _0066_
*282 _0067_
*283 _0068_
*284 _0069_
*285 _0070_
*286 _0071_
*287 _0072_
*288 _0073_
*289 _0074_
*290 _0075_
*291 _0076_
*292 _0077_
*293 _0078_
*294 _0079_
*295 _0080_
*296 _0081_
*297 _0082_
*298 _0083_
*299 _0084_
*300 _0085_
*301 _0086_
*302 _0087_
*303 _0088_
*304 _0089_
*305 _0090_
*306 _0091_
*307 _0092_
*308 _0093_
*309 _0094_
*310 _0095_
*311 _0096_
*312 _0097_
*313 _0098_
*314 _0099_
*315 _0100_
*316 _0101_
*317 _0102_
*318 _0103_
*319 _0104_
*320 _0105_
*321 _0106_
*322 _0107_
*323 _0108_
*324 _0109_
*325 _0110_
*326 _0111_
*327 _0112_
*328 _0113_
*329 _0114_
*330 _0115_
*331 _0116_
*332 _0117_
*333 _0118_
*334 _0119_
*335 _0120_
*336 _0121_
*337 _0122_
*338 _0123_
*339 _0124_
*340 _0125_
*341 _0126_
*342 _0127_
*343 _0128_
*344 _0129_
*345 _0130_
*346 _0131_
*347 _0132_
*348 _0133_
*349 _0134_
*350 _0135_
*351 _0136_
*352 _0137_
*353 _0138_
*354 _0139_
*355 _0140_
*356 _0141_
*357 _0142_
*358 _0143_
*359 _0144_
*360 _0145_
*361 _0146_
*362 _0147_
*363 _0148_
*364 _0149_
*365 _0150_
*366 _0151_
*367 _0152_
*368 _0153_
*369 _0154_
*370 _0155_
*371 _0156_
*372 _0157_
*373 _0158_
*374 _0159_
*375 _0160_
*376 _0161_
*377 _0162_
*378 _0163_
*379 _0164_
*380 _0165_
*381 _0166_
*382 _0167_
*383 _0168_
*384 _0169_
*385 _0170_
*386 _0171_
*387 _0172_
*388 _0173_
*389 _0174_
*390 _0175_
*391 _0176_
*392 _0177_
*393 _0178_
*394 _0179_
*395 _0180_
*396 _0181_
*397 _0182_
*398 _0183_
*399 _0184_
*400 _0185_
*401 _0186_
*402 _0187_
*403 _0188_
*404 _0189_
*405 _0190_
*406 _0191_
*407 _0192_
*408 _0193_
*409 _0194_
*410 _0195_
*411 _0196_
*412 _0197_
*413 _0198_
*414 _0199_
*415 _0200_
*416 _0201_
*417 _0202_
*418 _0203_
*419 _0204_
*420 _0205_
*421 _0206_
*422 _0207_
*423 _0208_
*424 _0209_
*425 _0210_
*426 _0211_
*427 _0212_
*428 _0213_
*429 _0214_
*430 _0215_
*431 _0216_
*432 _0217_
*433 _0218_
*434 _0219_
*435 _0220_
*436 _0221_
*437 _0222_
*438 _0223_
*439 _0224_
*440 _0225_
*441 _0226_
*442 _0227_
*443 _0228_
*444 _0229_
*445 _0230_
*446 _0231_
*447 _0232_
*448 _0233_
*449 _0234_
*450 _0235_
*451 _0236_
*452 _0237_
*453 _0238_
*454 _0239_
*455 _0240_
*456 _0241_
*457 _0242_
*458 _0243_
*459 _0244_
*460 _0245_
*461 _0246_
*462 _0247_
*463 _0248_
*464 _0249_
*465 _0250_
*466 _0251_
*467 _0252_
*468 _0253_
*469 _0254_
*470 _0255_
*471 _0256_
*472 _0257_
*473 _0258_
*474 _0259_
*475 _0260_
*476 _0261_
*477 _0262_
*478 _0263_
*479 _0264_
*480 _0265_
*481 _0266_
*482 _0267_
*483 _0268_
*484 _0269_
*485 _0270_
*486 _0271_
*487 _0272_
*488 _0273_
*489 _0274_
*490 _0275_
*491 _0276_
*492 _0277_
*493 _0278_
*494 _0279_
*495 _0280_
*496 _0281_
*497 _0282_
*498 _0283_
*499 _0284_
*500 _0285_
*501 _0286_
*502 _0287_
*503 _0288_
*504 _0289_
*505 _0290_
*506 _0291_
*507 _0292_
*508 _0293_
*509 _0294_
*510 _0295_
*511 _0296_
*512 _0297_
*513 _0298_
*514 _0299_
*515 _0300_
*516 _0301_
*517 _0302_
*518 _0303_
*519 _0304_
*520 _0305_
*521 _0306_
*522 _0307_
*523 _0308_
*524 _0309_
*525 _0310_
*526 _0311_
*527 _0312_
*528 _0313_
*529 _0314_
*530 _0315_
*531 _0316_
*532 _0317_
*533 _0318_
*534 _0319_
*535 _0320_
*536 _0321_
*537 _0322_
*538 _0323_
*539 _0324_
*540 _0325_
*541 _0326_
*542 _0327_
*543 _0328_
*544 _0329_
*545 _0330_
*546 _0331_
*547 _0332_
*548 _0333_
*549 _0334_
*550 _0335_
*551 _0336_
*552 _0337_
*553 _0338_
*554 _0339_
*555 _0340_
*556 _0341_
*557 _0342_
*558 _0343_
*559 _0344_
*560 _0345_
*561 _0346_
*562 _0347_
*563 _0348_
*564 _0349_
*565 _0350_
*566 _0351_
*567 _0352_
*568 _0353_
*569 _0354_
*570 _0355_
*571 _0356_
*572 _0357_
*573 _0358_
*574 _0359_
*575 _0360_
*576 _0361_
*577 _0362_
*578 _0363_
*579 _0364_
*580 _0365_
*581 _0366_
*582 _0367_
*583 _0368_
*584 _0369_
*585 _0370_
*586 _0371_
*587 _0372_
*588 _0373_
*589 _0374_
*590 _0375_
*591 _0376_
*592 _0377_
*593 _0378_
*594 _0379_
*595 _0380_
*596 _0381_
*597 _0382_
*598 _0383_
*599 _0384_
*600 _0385_
*601 _0386_
*602 _0387_
*603 _0388_
*604 _0389_
*605 _0390_
*606 _0391_
*607 _0392_
*608 _0393_
*609 _0394_
*610 _0395_
*611 _0396_
*612 _0397_
*613 _0398_
*614 _0399_
*615 _0400_
*616 _0401_
*617 _0402_
*618 _0403_
*619 _0404_
*620 _0405_
*621 _0406_
*622 _0407_
*623 _0408_
*624 _0409_
*625 _0410_
*626 _0411_
*627 _0412_
*628 _0413_
*629 _0414_
*630 _0415_
*631 _0416_
*632 _0417_
*633 _0418_
*634 _0419_
*635 _0420_
*636 _0421_
*637 _0422_
*638 _0423_
*639 _0424_
*640 _0425_
*641 _0426_
*642 _0427_
*643 _0428_
*644 _0429_
*645 _0430_
*646 _0431_
*647 _0432_
*648 _0433_
*649 _0434_
*650 _0435_
*651 _0436_
*652 _0437_
*653 _0438_
*654 _0439_
*655 _0440_
*656 _0441_
*657 _0442_
*658 _0443_
*659 _0444_
*660 _0445_
*661 _0446_
*662 _0447_
*663 _0448_
*664 _0449_
*665 _0450_
*666 _0451_
*667 _0452_
*668 _0453_
*669 _0454_
*670 _0455_
*671 _0456_
*672 _0457_
*673 _0458_
*674 _0459_
*675 _0460_
*676 _0461_
*677 _0462_
*678 _0463_
*679 _0464_
*680 _0465_
*681 _0466_
*682 _0467_
*683 _0468_
*684 _0469_
*685 _0470_
*686 _0471_
*687 _0472_
*688 _0473_
*689 _0474_
*690 _0475_
*691 _0476_
*692 _0477_
*693 _0478_
*694 _0479_
*695 _0480_
*696 _0481_
*697 _0482_
*698 _0483_
*699 _0484_
*700 _0485_
*701 _0486_
*702 _0487_
*703 _0488_
*704 _0489_
*705 _0490_
*706 _0491_
*707 _0492_
*708 _0493_
*709 _0494_
*710 _0495_
*711 _0496_
*712 _0497_
*713 _0498_
*714 _0499_
*715 _0500_
*716 _0501_
*717 _0502_
*718 _0503_
*719 _0504_
*720 _0505_
*721 _0506_
*722 _0507_
*723 _0508_
*724 _0509_
*725 _0510_
*726 _0511_
*727 _0512_
*728 _0513_
*729 _0514_
*730 _0515_
*731 _0516_
*732 _0517_
*733 _0518_
*734 _0519_
*735 _0520_
*736 _0521_
*737 _0522_
*738 _0523_
*739 _0524_
*740 _0525_
*741 _0526_
*742 _0527_
*743 _0528_
*744 _0529_
*745 _0530_
*746 _0531_
*747 _0532_
*748 _0533_
*749 _0534_
*750 _0535_
*751 _0536_
*752 _0537_
*753 _0538_
*754 _0539_
*755 _0540_
*756 _0541_
*757 _0542_
*758 _0543_
*759 _0544_
*760 _0545_
*761 _0546_
*762 _0547_
*763 _0548_
*764 _0549_
*765 _0550_
*766 _0551_
*767 _0552_
*768 _0553_
*769 _0554_
*770 _0555_
*771 _0556_
*772 _0557_
*773 _0558_
*774 clknet_0_wb_clk_i
*775 clknet_3_0__leaf_wb_clk_i
*776 clknet_3_1__leaf_wb_clk_i
*777 clknet_3_2__leaf_wb_clk_i
*778 clknet_3_3__leaf_wb_clk_i
*779 clknet_3_4__leaf_wb_clk_i
*780 clknet_3_5__leaf_wb_clk_i
*781 clknet_3_6__leaf_wb_clk_i
*782 clknet_3_7__leaf_wb_clk_i
*783 net1
*784 net10
*785 net100
*786 net101
*787 net102
*788 net103
*789 net104
*790 net105
*791 net106
*792 net107
*793 net108
*794 net109
*795 net11
*796 net110
*797 net111
*798 net112
*799 net12
*800 net13
*801 net14
*802 net15
*803 net16
*804 net17
*805 net18
*806 net19
*807 net2
*808 net20
*809 net21
*810 net22
*811 net23
*812 net24
*813 net25
*814 net26
*815 net27
*816 net28
*817 net29
*818 net3
*819 net30
*820 net31
*821 net32
*822 net33
*823 net34
*824 net35
*825 net36
*826 net37
*827 net38
*828 net39
*829 net4
*830 net40
*831 net41
*832 net42
*833 net43
*834 net44
*835 net45
*836 net46
*837 net47
*838 net48
*839 net49
*840 net5
*841 net50
*842 net51
*843 net52
*844 net53
*845 net54
*846 net55
*847 net56
*848 net57
*849 net58
*850 net59
*851 net6
*852 net60
*853 net61
*854 net62
*855 net63
*856 net64
*857 net65
*858 net66
*859 net67
*860 net68
*861 net69
*862 net7
*863 net70
*864 net71
*865 net72
*866 net73
*867 net74
*868 net75
*869 net76
*870 net77
*871 net78
*872 net79
*873 net8
*874 net80
*875 net81
*876 net82
*877 net83
*878 net84
*879 net85
*880 net86
*881 net87
*882 net88
*883 net89
*884 net9
*885 net90
*886 net91
*887 net92
*888 net93
*889 net94
*890 net95
*891 net96
*892 net97
*893 net98
*894 net99
*895 rgb_mixer\.debounce0_a\.button_hist\[0\]
*896 rgb_mixer\.debounce0_a\.button_hist\[1\]
*897 rgb_mixer\.debounce0_a\.button_hist\[2\]
*898 rgb_mixer\.debounce0_a\.button_hist\[3\]
*899 rgb_mixer\.debounce0_a\.button_hist\[4\]
*900 rgb_mixer\.debounce0_a\.button_hist\[5\]
*901 rgb_mixer\.debounce0_a\.button_hist\[6\]
*902 rgb_mixer\.debounce0_a\.button_hist\[7\]
*903 rgb_mixer\.debounce0_a\.debounced
*904 rgb_mixer\.debounce0_b\.button_hist\[0\]
*905 rgb_mixer\.debounce0_b\.button_hist\[1\]
*906 rgb_mixer\.debounce0_b\.button_hist\[2\]
*907 rgb_mixer\.debounce0_b\.button_hist\[3\]
*908 rgb_mixer\.debounce0_b\.button_hist\[4\]
*909 rgb_mixer\.debounce0_b\.button_hist\[5\]
*910 rgb_mixer\.debounce0_b\.button_hist\[6\]
*911 rgb_mixer\.debounce0_b\.button_hist\[7\]
*912 rgb_mixer\.debounce0_b\.debounced
*913 rgb_mixer\.debounce1_a\.button_hist\[0\]
*914 rgb_mixer\.debounce1_a\.button_hist\[1\]
*915 rgb_mixer\.debounce1_a\.button_hist\[2\]
*916 rgb_mixer\.debounce1_a\.button_hist\[3\]
*917 rgb_mixer\.debounce1_a\.button_hist\[4\]
*918 rgb_mixer\.debounce1_a\.button_hist\[5\]
*919 rgb_mixer\.debounce1_a\.button_hist\[6\]
*920 rgb_mixer\.debounce1_a\.button_hist\[7\]
*921 rgb_mixer\.debounce1_a\.debounced
*922 rgb_mixer\.debounce1_b\.button_hist\[0\]
*923 rgb_mixer\.debounce1_b\.button_hist\[1\]
*924 rgb_mixer\.debounce1_b\.button_hist\[2\]
*925 rgb_mixer\.debounce1_b\.button_hist\[3\]
*926 rgb_mixer\.debounce1_b\.button_hist\[4\]
*927 rgb_mixer\.debounce1_b\.button_hist\[5\]
*928 rgb_mixer\.debounce1_b\.button_hist\[6\]
*929 rgb_mixer\.debounce1_b\.button_hist\[7\]
*930 rgb_mixer\.debounce1_b\.debounced
*931 rgb_mixer\.debounce2_a\.button_hist\[0\]
*932 rgb_mixer\.debounce2_a\.button_hist\[1\]
*933 rgb_mixer\.debounce2_a\.button_hist\[2\]
*934 rgb_mixer\.debounce2_a\.button_hist\[3\]
*935 rgb_mixer\.debounce2_a\.button_hist\[4\]
*936 rgb_mixer\.debounce2_a\.button_hist\[5\]
*937 rgb_mixer\.debounce2_a\.button_hist\[6\]
*938 rgb_mixer\.debounce2_a\.button_hist\[7\]
*939 rgb_mixer\.debounce2_a\.debounced
*940 rgb_mixer\.debounce2_b\.button_hist\[0\]
*941 rgb_mixer\.debounce2_b\.button_hist\[1\]
*942 rgb_mixer\.debounce2_b\.button_hist\[2\]
*943 rgb_mixer\.debounce2_b\.button_hist\[3\]
*944 rgb_mixer\.debounce2_b\.button_hist\[4\]
*945 rgb_mixer\.debounce2_b\.button_hist\[5\]
*946 rgb_mixer\.debounce2_b\.button_hist\[6\]
*947 rgb_mixer\.debounce2_b\.button_hist\[7\]
*948 rgb_mixer\.debounce2_b\.debounced
*949 rgb_mixer\.enc0\[0\]
*950 rgb_mixer\.enc0\[1\]
*951 rgb_mixer\.enc0\[2\]
*952 rgb_mixer\.enc0\[3\]
*953 rgb_mixer\.enc0\[4\]
*954 rgb_mixer\.enc0\[5\]
*955 rgb_mixer\.enc0\[6\]
*956 rgb_mixer\.enc0\[7\]
*957 rgb_mixer\.enc1\[0\]
*958 rgb_mixer\.enc1\[1\]
*959 rgb_mixer\.enc1\[2\]
*960 rgb_mixer\.enc1\[3\]
*961 rgb_mixer\.enc1\[4\]
*962 rgb_mixer\.enc1\[5\]
*963 rgb_mixer\.enc1\[6\]
*964 rgb_mixer\.enc1\[7\]
*965 rgb_mixer\.enc2\[0\]
*966 rgb_mixer\.enc2\[1\]
*967 rgb_mixer\.enc2\[2\]
*968 rgb_mixer\.enc2\[3\]
*969 rgb_mixer\.enc2\[4\]
*970 rgb_mixer\.enc2\[5\]
*971 rgb_mixer\.enc2\[6\]
*972 rgb_mixer\.enc2\[7\]
*973 rgb_mixer\.encoder0\.old_a
*974 rgb_mixer\.encoder0\.old_b
*975 rgb_mixer\.encoder1\.old_a
*976 rgb_mixer\.encoder1\.old_b
*977 rgb_mixer\.encoder2\.old_a
*978 rgb_mixer\.encoder2\.old_b
*979 rgb_mixer\.pwm0\.count\[0\]
*980 rgb_mixer\.pwm0\.count\[1\]
*981 rgb_mixer\.pwm0\.count\[2\]
*982 rgb_mixer\.pwm0\.count\[3\]
*983 rgb_mixer\.pwm0\.count\[4\]
*984 rgb_mixer\.pwm0\.count\[5\]
*985 rgb_mixer\.pwm0\.count\[6\]
*986 rgb_mixer\.pwm0\.count\[7\]
*987 rgb_mixer\.pwm0\.out
*988 rgb_mixer\.pwm1\.count\[0\]
*989 rgb_mixer\.pwm1\.count\[1\]
*990 rgb_mixer\.pwm1\.count\[2\]
*991 rgb_mixer\.pwm1\.count\[3\]
*992 rgb_mixer\.pwm1\.count\[4\]
*993 rgb_mixer\.pwm1\.count\[5\]
*994 rgb_mixer\.pwm1\.count\[6\]
*995 rgb_mixer\.pwm1\.count\[7\]
*996 rgb_mixer\.pwm1\.out
*997 rgb_mixer\.pwm2\.count\[0\]
*998 rgb_mixer\.pwm2\.count\[1\]
*999 rgb_mixer\.pwm2\.count\[2\]
*1000 rgb_mixer\.pwm2\.count\[3\]
*1001 rgb_mixer\.pwm2\.count\[4\]
*1002 rgb_mixer\.pwm2\.count\[5\]
*1003 rgb_mixer\.pwm2\.count\[6\]
*1004 rgb_mixer\.pwm2\.count\[7\]
*1005 rgb_mixer\.pwm2\.out
*1006 ANTENNA_1
*1007 ANTENNA_2
*1008 FILLER_0_109
*1009 FILLER_0_113
*1010 FILLER_0_138
*1011 FILLER_0_141
*1012 FILLER_0_153
*1013 FILLER_0_165
*1014 FILLER_0_169
*1015 FILLER_0_181
*1016 FILLER_0_193
*1017 FILLER_0_197
*1018 FILLER_0_220
*1019 FILLER_0_225
*1020 FILLER_0_237
*1021 FILLER_0_249
*1022 FILLER_0_253
*1023 FILLER_0_26
*1024 FILLER_0_265
*1025 FILLER_0_277
*1026 FILLER_0_281
*1027 FILLER_0_29
*1028 FILLER_0_290
*1029 FILLER_0_3
*1030 FILLER_0_302
*1031 FILLER_0_309
*1032 FILLER_0_321
*1033 FILLER_0_333
*1034 FILLER_0_337
*1035 FILLER_0_34
*1036 FILLER_0_349
*1037 FILLER_0_361
*1038 FILLER_0_365
*1039 FILLER_0_377
*1040 FILLER_0_389
*1041 FILLER_0_393
*1042 FILLER_0_405
*1043 FILLER_0_41
*1044 FILLER_0_412
*1045 FILLER_0_421
*1046 FILLER_0_444
*1047 FILLER_0_449
*1048 FILLER_0_47
*1049 FILLER_0_474
*1050 FILLER_0_477
*1051 FILLER_0_500
*1052 FILLER_0_505
*1053 FILLER_0_51
*1054 FILLER_0_510
*1055 FILLER_0_55
*1056 FILLER_0_57
*1057 FILLER_0_82
*1058 FILLER_0_85
*1059 FILLER_0_97
*1060 FILLER_10_109
*1061 FILLER_10_121
*1062 FILLER_10_133
*1063 FILLER_10_139
*1064 FILLER_10_141
*1065 FILLER_10_153
*1066 FILLER_10_165
*1067 FILLER_10_177
*1068 FILLER_10_189
*1069 FILLER_10_195
*1070 FILLER_10_197
*1071 FILLER_10_209
*1072 FILLER_10_221
*1073 FILLER_10_233
*1074 FILLER_10_245
*1075 FILLER_10_251
*1076 FILLER_10_253
*1077 FILLER_10_26
*1078 FILLER_10_265
*1079 FILLER_10_277
*1080 FILLER_10_289
*1081 FILLER_10_29
*1082 FILLER_10_3
*1083 FILLER_10_301
*1084 FILLER_10_307
*1085 FILLER_10_309
*1086 FILLER_10_321
*1087 FILLER_10_333
*1088 FILLER_10_34
*1089 FILLER_10_345
*1090 FILLER_10_357
*1091 FILLER_10_363
*1092 FILLER_10_365
*1093 FILLER_10_377
*1094 FILLER_10_389
*1095 FILLER_10_401
*1096 FILLER_10_413
*1097 FILLER_10_419
*1098 FILLER_10_421
*1099 FILLER_10_433
*1100 FILLER_10_445
*1101 FILLER_10_457
*1102 FILLER_10_46
*1103 FILLER_10_469
*1104 FILLER_10_475
*1105 FILLER_10_477
*1106 FILLER_10_489
*1107 FILLER_10_501
*1108 FILLER_10_514
*1109 FILLER_10_58
*1110 FILLER_10_70
*1111 FILLER_10_82
*1112 FILLER_10_85
*1113 FILLER_10_97
*1114 FILLER_11_105
*1115 FILLER_11_111
*1116 FILLER_11_113
*1117 FILLER_11_125
*1118 FILLER_11_137
*1119 FILLER_11_149
*1120 FILLER_11_161
*1121 FILLER_11_167
*1122 FILLER_11_169
*1123 FILLER_11_181
*1124 FILLER_11_193
*1125 FILLER_11_205
*1126 FILLER_11_217
*1127 FILLER_11_223
*1128 FILLER_11_225
*1129 FILLER_11_237
*1130 FILLER_11_249
*1131 FILLER_11_261
*1132 FILLER_11_273
*1133 FILLER_11_279
*1134 FILLER_11_281
*1135 FILLER_11_293
*1136 FILLER_11_3
*1137 FILLER_11_305
*1138 FILLER_11_317
*1139 FILLER_11_32
*1140 FILLER_11_329
*1141 FILLER_11_335
*1142 FILLER_11_337
*1143 FILLER_11_349
*1144 FILLER_11_361
*1145 FILLER_11_373
*1146 FILLER_11_385
*1147 FILLER_11_391
*1148 FILLER_11_393
*1149 FILLER_11_405
*1150 FILLER_11_417
*1151 FILLER_11_429
*1152 FILLER_11_433
*1153 FILLER_11_44
*1154 FILLER_11_446
*1155 FILLER_11_449
*1156 FILLER_11_461
*1157 FILLER_11_473
*1158 FILLER_11_485
*1159 FILLER_11_497
*1160 FILLER_11_503
*1161 FILLER_11_505
*1162 FILLER_11_513
*1163 FILLER_11_57
*1164 FILLER_11_69
*1165 FILLER_11_81
*1166 FILLER_11_93
*1167 FILLER_12_109
*1168 FILLER_12_12
*1169 FILLER_12_121
*1170 FILLER_12_133
*1171 FILLER_12_139
*1172 FILLER_12_141
*1173 FILLER_12_153
*1174 FILLER_12_165
*1175 FILLER_12_177
*1176 FILLER_12_189
*1177 FILLER_12_19
*1178 FILLER_12_195
*1179 FILLER_12_197
*1180 FILLER_12_209
*1181 FILLER_12_221
*1182 FILLER_12_233
*1183 FILLER_12_245
*1184 FILLER_12_251
*1185 FILLER_12_253
*1186 FILLER_12_265
*1187 FILLER_12_27
*1188 FILLER_12_277
*1189 FILLER_12_289
*1190 FILLER_12_29
*1191 FILLER_12_3
*1192 FILLER_12_301
*1193 FILLER_12_307
*1194 FILLER_12_309
*1195 FILLER_12_321
*1196 FILLER_12_333
*1197 FILLER_12_345
*1198 FILLER_12_357
*1199 FILLER_12_363
*1200 FILLER_12_365
*1201 FILLER_12_377
*1202 FILLER_12_389
*1203 FILLER_12_401
*1204 FILLER_12_41
*1205 FILLER_12_413
*1206 FILLER_12_419
*1207 FILLER_12_421
*1208 FILLER_12_433
*1209 FILLER_12_445
*1210 FILLER_12_457
*1211 FILLER_12_469
*1212 FILLER_12_475
*1213 FILLER_12_477
*1214 FILLER_12_489
*1215 FILLER_12_501
*1216 FILLER_12_513
*1217 FILLER_12_53
*1218 FILLER_12_65
*1219 FILLER_12_77
*1220 FILLER_12_83
*1221 FILLER_12_85
*1222 FILLER_12_97
*1223 FILLER_13_105
*1224 FILLER_13_111
*1225 FILLER_13_113
*1226 FILLER_13_125
*1227 FILLER_13_137
*1228 FILLER_13_149
*1229 FILLER_13_161
*1230 FILLER_13_167
*1231 FILLER_13_169
*1232 FILLER_13_181
*1233 FILLER_13_193
*1234 FILLER_13_205
*1235 FILLER_13_217
*1236 FILLER_13_223
*1237 FILLER_13_225
*1238 FILLER_13_237
*1239 FILLER_13_249
*1240 FILLER_13_261
*1241 FILLER_13_273
*1242 FILLER_13_279
*1243 FILLER_13_281
*1244 FILLER_13_293
*1245 FILLER_13_3
*1246 FILLER_13_305
*1247 FILLER_13_317
*1248 FILLER_13_32
*1249 FILLER_13_329
*1250 FILLER_13_335
*1251 FILLER_13_337
*1252 FILLER_13_349
*1253 FILLER_13_361
*1254 FILLER_13_373
*1255 FILLER_13_385
*1256 FILLER_13_391
*1257 FILLER_13_393
*1258 FILLER_13_405
*1259 FILLER_13_417
*1260 FILLER_13_429
*1261 FILLER_13_44
*1262 FILLER_13_441
*1263 FILLER_13_447
*1264 FILLER_13_449
*1265 FILLER_13_461
*1266 FILLER_13_473
*1267 FILLER_13_485
*1268 FILLER_13_497
*1269 FILLER_13_503
*1270 FILLER_13_505
*1271 FILLER_13_513
*1272 FILLER_13_57
*1273 FILLER_13_69
*1274 FILLER_13_81
*1275 FILLER_13_93
*1276 FILLER_14_109
*1277 FILLER_14_121
*1278 FILLER_14_133
*1279 FILLER_14_139
*1280 FILLER_14_14
*1281 FILLER_14_141
*1282 FILLER_14_153
*1283 FILLER_14_165
*1284 FILLER_14_177
*1285 FILLER_14_189
*1286 FILLER_14_195
*1287 FILLER_14_197
*1288 FILLER_14_209
*1289 FILLER_14_21
*1290 FILLER_14_221
*1291 FILLER_14_233
*1292 FILLER_14_245
*1293 FILLER_14_251
*1294 FILLER_14_253
*1295 FILLER_14_265
*1296 FILLER_14_27
*1297 FILLER_14_277
*1298 FILLER_14_289
*1299 FILLER_14_29
*1300 FILLER_14_3
*1301 FILLER_14_301
*1302 FILLER_14_307
*1303 FILLER_14_309
*1304 FILLER_14_321
*1305 FILLER_14_333
*1306 FILLER_14_345
*1307 FILLER_14_357
*1308 FILLER_14_363
*1309 FILLER_14_365
*1310 FILLER_14_377
*1311 FILLER_14_389
*1312 FILLER_14_401
*1313 FILLER_14_41
*1314 FILLER_14_413
*1315 FILLER_14_419
*1316 FILLER_14_421
*1317 FILLER_14_433
*1318 FILLER_14_445
*1319 FILLER_14_457
*1320 FILLER_14_469
*1321 FILLER_14_475
*1322 FILLER_14_477
*1323 FILLER_14_489
*1324 FILLER_14_501
*1325 FILLER_14_513
*1326 FILLER_14_53
*1327 FILLER_14_65
*1328 FILLER_14_77
*1329 FILLER_14_83
*1330 FILLER_14_85
*1331 FILLER_14_97
*1332 FILLER_15_105
*1333 FILLER_15_111
*1334 FILLER_15_113
*1335 FILLER_15_125
*1336 FILLER_15_137
*1337 FILLER_15_149
*1338 FILLER_15_15
*1339 FILLER_15_161
*1340 FILLER_15_167
*1341 FILLER_15_169
*1342 FILLER_15_181
*1343 FILLER_15_193
*1344 FILLER_15_205
*1345 FILLER_15_217
*1346 FILLER_15_223
*1347 FILLER_15_225
*1348 FILLER_15_237
*1349 FILLER_15_249
*1350 FILLER_15_261
*1351 FILLER_15_27
*1352 FILLER_15_273
*1353 FILLER_15_279
*1354 FILLER_15_281
*1355 FILLER_15_293
*1356 FILLER_15_3
*1357 FILLER_15_305
*1358 FILLER_15_317
*1359 FILLER_15_329
*1360 FILLER_15_335
*1361 FILLER_15_337
*1362 FILLER_15_349
*1363 FILLER_15_361
*1364 FILLER_15_373
*1365 FILLER_15_385
*1366 FILLER_15_39
*1367 FILLER_15_391
*1368 FILLER_15_393
*1369 FILLER_15_405
*1370 FILLER_15_417
*1371 FILLER_15_429
*1372 FILLER_15_441
*1373 FILLER_15_447
*1374 FILLER_15_449
*1375 FILLER_15_461
*1376 FILLER_15_473
*1377 FILLER_15_485
*1378 FILLER_15_497
*1379 FILLER_15_503
*1380 FILLER_15_505
*1381 FILLER_15_51
*1382 FILLER_15_513
*1383 FILLER_15_55
*1384 FILLER_15_57
*1385 FILLER_15_69
*1386 FILLER_15_81
*1387 FILLER_15_93
*1388 FILLER_16_109
*1389 FILLER_16_11
*1390 FILLER_16_121
*1391 FILLER_16_133
*1392 FILLER_16_139
*1393 FILLER_16_141
*1394 FILLER_16_15
*1395 FILLER_16_153
*1396 FILLER_16_165
*1397 FILLER_16_177
*1398 FILLER_16_189
*1399 FILLER_16_195
*1400 FILLER_16_197
*1401 FILLER_16_209
*1402 FILLER_16_221
*1403 FILLER_16_233
*1404 FILLER_16_245
*1405 FILLER_16_251
*1406 FILLER_16_253
*1407 FILLER_16_265
*1408 FILLER_16_27
*1409 FILLER_16_277
*1410 FILLER_16_289
*1411 FILLER_16_29
*1412 FILLER_16_3
*1413 FILLER_16_301
*1414 FILLER_16_307
*1415 FILLER_16_309
*1416 FILLER_16_321
*1417 FILLER_16_333
*1418 FILLER_16_345
*1419 FILLER_16_357
*1420 FILLER_16_363
*1421 FILLER_16_365
*1422 FILLER_16_377
*1423 FILLER_16_389
*1424 FILLER_16_401
*1425 FILLER_16_41
*1426 FILLER_16_413
*1427 FILLER_16_419
*1428 FILLER_16_421
*1429 FILLER_16_433
*1430 FILLER_16_445
*1431 FILLER_16_457
*1432 FILLER_16_469
*1433 FILLER_16_475
*1434 FILLER_16_477
*1435 FILLER_16_489
*1436 FILLER_16_514
*1437 FILLER_16_53
*1438 FILLER_16_65
*1439 FILLER_16_77
*1440 FILLER_16_83
*1441 FILLER_16_85
*1442 FILLER_16_97
*1443 FILLER_17_105
*1444 FILLER_17_111
*1445 FILLER_17_113
*1446 FILLER_17_125
*1447 FILLER_17_137
*1448 FILLER_17_149
*1449 FILLER_17_161
*1450 FILLER_17_167
*1451 FILLER_17_169
*1452 FILLER_17_181
*1453 FILLER_17_193
*1454 FILLER_17_205
*1455 FILLER_17_217
*1456 FILLER_17_223
*1457 FILLER_17_225
*1458 FILLER_17_237
*1459 FILLER_17_249
*1460 FILLER_17_261
*1461 FILLER_17_273
*1462 FILLER_17_279
*1463 FILLER_17_281
*1464 FILLER_17_293
*1465 FILLER_17_3
*1466 FILLER_17_305
*1467 FILLER_17_31
*1468 FILLER_17_317
*1469 FILLER_17_329
*1470 FILLER_17_335
*1471 FILLER_17_337
*1472 FILLER_17_349
*1473 FILLER_17_361
*1474 FILLER_17_373
*1475 FILLER_17_385
*1476 FILLER_17_391
*1477 FILLER_17_393
*1478 FILLER_17_405
*1479 FILLER_17_417
*1480 FILLER_17_429
*1481 FILLER_17_43
*1482 FILLER_17_441
*1483 FILLER_17_447
*1484 FILLER_17_449
*1485 FILLER_17_461
*1486 FILLER_17_473
*1487 FILLER_17_485
*1488 FILLER_17_497
*1489 FILLER_17_502
*1490 FILLER_17_505
*1491 FILLER_17_510
*1492 FILLER_17_55
*1493 FILLER_17_57
*1494 FILLER_17_69
*1495 FILLER_17_81
*1496 FILLER_17_9
*1497 FILLER_17_93
*1498 FILLER_18_109
*1499 FILLER_18_121
*1500 FILLER_18_133
*1501 FILLER_18_139
*1502 FILLER_18_14
*1503 FILLER_18_141
*1504 FILLER_18_153
*1505 FILLER_18_165
*1506 FILLER_18_177
*1507 FILLER_18_189
*1508 FILLER_18_195
*1509 FILLER_18_197
*1510 FILLER_18_209
*1511 FILLER_18_221
*1512 FILLER_18_233
*1513 FILLER_18_245
*1514 FILLER_18_251
*1515 FILLER_18_253
*1516 FILLER_18_26
*1517 FILLER_18_265
*1518 FILLER_18_277
*1519 FILLER_18_289
*1520 FILLER_18_29
*1521 FILLER_18_3
*1522 FILLER_18_301
*1523 FILLER_18_307
*1524 FILLER_18_309
*1525 FILLER_18_321
*1526 FILLER_18_333
*1527 FILLER_18_345
*1528 FILLER_18_357
*1529 FILLER_18_363
*1530 FILLER_18_365
*1531 FILLER_18_377
*1532 FILLER_18_389
*1533 FILLER_18_401
*1534 FILLER_18_41
*1535 FILLER_18_413
*1536 FILLER_18_419
*1537 FILLER_18_421
*1538 FILLER_18_433
*1539 FILLER_18_445
*1540 FILLER_18_457
*1541 FILLER_18_469
*1542 FILLER_18_475
*1543 FILLER_18_477
*1544 FILLER_18_489
*1545 FILLER_18_514
*1546 FILLER_18_53
*1547 FILLER_18_65
*1548 FILLER_18_77
*1549 FILLER_18_83
*1550 FILLER_18_85
*1551 FILLER_18_97
*1552 FILLER_19_105
*1553 FILLER_19_111
*1554 FILLER_19_113
*1555 FILLER_19_125
*1556 FILLER_19_137
*1557 FILLER_19_149
*1558 FILLER_19_15
*1559 FILLER_19_161
*1560 FILLER_19_167
*1561 FILLER_19_169
*1562 FILLER_19_181
*1563 FILLER_19_193
*1564 FILLER_19_205
*1565 FILLER_19_217
*1566 FILLER_19_223
*1567 FILLER_19_225
*1568 FILLER_19_237
*1569 FILLER_19_249
*1570 FILLER_19_261
*1571 FILLER_19_27
*1572 FILLER_19_273
*1573 FILLER_19_279
*1574 FILLER_19_281
*1575 FILLER_19_293
*1576 FILLER_19_3
*1577 FILLER_19_305
*1578 FILLER_19_317
*1579 FILLER_19_329
*1580 FILLER_19_335
*1581 FILLER_19_337
*1582 FILLER_19_349
*1583 FILLER_19_361
*1584 FILLER_19_373
*1585 FILLER_19_385
*1586 FILLER_19_39
*1587 FILLER_19_391
*1588 FILLER_19_393
*1589 FILLER_19_405
*1590 FILLER_19_417
*1591 FILLER_19_429
*1592 FILLER_19_441
*1593 FILLER_19_447
*1594 FILLER_19_449
*1595 FILLER_19_461
*1596 FILLER_19_473
*1597 FILLER_19_485
*1598 FILLER_19_497
*1599 FILLER_19_502
*1600 FILLER_19_505
*1601 FILLER_19_51
*1602 FILLER_19_510
*1603 FILLER_19_55
*1604 FILLER_19_57
*1605 FILLER_19_69
*1606 FILLER_19_81
*1607 FILLER_19_93
*1608 FILLER_1_103
*1609 FILLER_1_111
*1610 FILLER_1_113
*1611 FILLER_1_121
*1612 FILLER_1_125
*1613 FILLER_1_150
*1614 FILLER_1_162
*1615 FILLER_1_169
*1616 FILLER_1_192
*1617 FILLER_1_200
*1618 FILLER_1_222
*1619 FILLER_1_225
*1620 FILLER_1_248
*1621 FILLER_1_256
*1622 FILLER_1_278
*1623 FILLER_1_281
*1624 FILLER_1_285
*1625 FILLER_1_29
*1626 FILLER_1_3
*1627 FILLER_1_307
*1628 FILLER_1_319
*1629 FILLER_1_331
*1630 FILLER_1_335
*1631 FILLER_1_337
*1632 FILLER_1_360
*1633 FILLER_1_372
*1634 FILLER_1_384
*1635 FILLER_1_393
*1636 FILLER_1_426
*1637 FILLER_1_433
*1638 FILLER_1_440
*1639 FILLER_1_449
*1640 FILLER_1_472
*1641 FILLER_1_497
*1642 FILLER_1_503
*1643 FILLER_1_505
*1644 FILLER_1_510
*1645 FILLER_1_54
*1646 FILLER_1_57
*1647 FILLER_1_66
*1648 FILLER_1_7
*1649 FILLER_1_91
*1650 FILLER_1_99
*1651 FILLER_20_109
*1652 FILLER_20_121
*1653 FILLER_20_133
*1654 FILLER_20_139
*1655 FILLER_20_141
*1656 FILLER_20_15
*1657 FILLER_20_153
*1658 FILLER_20_165
*1659 FILLER_20_177
*1660 FILLER_20_189
*1661 FILLER_20_195
*1662 FILLER_20_197
*1663 FILLER_20_209
*1664 FILLER_20_221
*1665 FILLER_20_233
*1666 FILLER_20_245
*1667 FILLER_20_251
*1668 FILLER_20_253
*1669 FILLER_20_265
*1670 FILLER_20_27
*1671 FILLER_20_277
*1672 FILLER_20_289
*1673 FILLER_20_29
*1674 FILLER_20_3
*1675 FILLER_20_301
*1676 FILLER_20_307
*1677 FILLER_20_309
*1678 FILLER_20_321
*1679 FILLER_20_333
*1680 FILLER_20_345
*1681 FILLER_20_357
*1682 FILLER_20_363
*1683 FILLER_20_365
*1684 FILLER_20_377
*1685 FILLER_20_389
*1686 FILLER_20_401
*1687 FILLER_20_41
*1688 FILLER_20_413
*1689 FILLER_20_419
*1690 FILLER_20_421
*1691 FILLER_20_433
*1692 FILLER_20_445
*1693 FILLER_20_457
*1694 FILLER_20_469
*1695 FILLER_20_475
*1696 FILLER_20_477
*1697 FILLER_20_489
*1698 FILLER_20_514
*1699 FILLER_20_53
*1700 FILLER_20_65
*1701 FILLER_20_77
*1702 FILLER_20_83
*1703 FILLER_20_85
*1704 FILLER_20_97
*1705 FILLER_21_105